12

C          2.35479       -2.27590        0.40237
C          1.27576       -1.86114       -0.38595
C          0.56906       -0.70381       -0.05066
C          0.94154        0.04121        1.07548
C          2.02072       -0.37360        1.86392
C          2.72726       -1.53158        1.52781
H          2.90043       -3.17289        0.14020
H          0.98473       -2.43378       -1.25674
H         -0.26457       -0.38907       -0.66516
H          0.39549        0.93719        1.33622
H          2.31340        0.19832        2.73582
H          3.56067       -1.84505        2.14331
