14

C         -0.87931       -4.77039        0.03554
C         -0.68902       -4.75793        1.56474
C         -0.13597       -3.42950        2.03558
O          0.03224       -3.23762        3.23105
O          0.16603       -2.44864        1.15545
N          0.21623       -5.83383        1.98004
S         -1.69196       -6.29641       -0.54799
H          0.09753       -4.64794       -0.48155
H         -1.52147       -3.92199       -0.28390
H         -1.68351       -4.90147        2.04299
H          0.51499       -1.59560        1.45037
H          0.30340       -5.83393        3.02290
H         -0.18435       -6.76203        1.71757
H         -0.50079       -6.84368       -1.06167
