20

C         -4.23911        2.28266       -0.00699
C         -2.93479        1.49130        0.02424
C         -1.71965        2.42508       -0.01678
C         -0.41127        1.62634        0.01476
C          0.80387        2.56011       -0.02626
C          2.10819        1.76876        0.00500
H         -5.10027        1.58236        0.02370
H         -4.30333        2.88468       -0.93841
H         -4.30059        2.96059        0.87092
H         -2.90979        0.80659       -0.85150
H         -2.90706        0.88236        0.95419
H         -1.75313        3.10939        0.85975
H         -1.75586        3.03355       -0.94746
H         -0.37779        0.94202       -0.86177
H         -0.37506        1.01787        0.94545
H          0.77886        3.24484        0.84948
H          0.77614        3.16905       -0.95621
H          2.17240        1.16675        0.93644
H          2.96935        2.46906       -0.02569
H          2.16968        1.09081       -0.87290
