20

C         -1.85776        0.70822        0.25080
C         -0.76117        1.76451        0.44366
C          0.59374        1.19988       -0.04350
C          1.77961        2.14181        0.21910
C          3.09462        1.50186       -0.21807
H         -2.82952        1.08697        0.63385
H         -1.60560       -0.21628        0.81295
H         -1.97314        0.45188       -0.82456
C         -1.15955        3.05384       -0.29206
H          0.53530        0.96926       -1.13055
H          0.78876        0.25022        0.50307
H          1.83800        2.37203        1.30511
H          1.65708        3.08954       -0.34421
H          3.27244        0.55999        0.34349
H          3.93423        2.19960       -0.01481
H          3.07254        1.27937       -1.30627
H         -0.68870        1.98504        1.53181
H         -1.23561        2.87362       -1.38592
H         -0.42710        3.86509       -0.10877
H         -2.14276        3.41483        0.07856
