20

C         -1.15197       -4.86865       -0.24229
C         -0.73390       -5.05709        1.23648
C         -0.24141       -3.75041        1.82737
O          0.08267       -3.70568        3.00552
O         -0.15828       -2.63148        1.07234
N          0.31664       -6.07201        1.36280
C         -1.73986       -6.12954       -0.88382
H         -0.27638       -4.53221       -0.84066
H         -1.93196       -4.07539       -0.28121
H         -1.62725       -5.37572        1.81950
H          0.15530       -1.79340        1.44218
H          0.60826       -6.15458        2.36388
H         -0.06349       -7.00905        1.10464
H         -0.95321       -6.91090       -0.92020
S         -2.28827       -5.74199       -2.58371
C         -2.03261       -7.42087       -3.24119
H         -2.61199       -6.48994       -0.29772
H         -2.47344       -8.17929       -2.56097
H         -0.95107       -7.60424       -3.40977
H         -2.56716       -7.50391       -4.20953
