26

C         -0.13868       -3.87638       -3.91069
C         -0.20202       -2.77520       -2.85625
C          0.92870       -2.92407       -1.83182
C          0.86161       -1.81597       -0.77419
C          1.99234       -1.96428        0.25086
C          1.92522       -0.85621        1.30853
C          3.05591       -1.00510        2.33297
C          2.99251        0.09600        3.38748
H         -0.96746       -3.74379       -4.63768
H         -0.24053       -4.87435       -3.43342
H          0.82626       -3.83073       -4.45923
H         -1.18474       -2.83022       -2.33894
H         -0.12011       -1.78869       -3.36268
H          1.90830       -2.87184       -2.35656
H          0.84278       -3.91426       -1.33198
H         -0.11814       -1.86831       -0.24977
H          0.94734       -0.82592       -1.27430
H          2.97209       -1.91192       -0.27355
H          1.90661       -2.95434        0.75095
H          0.94560       -0.90848        1.83325
H          2.01113        0.13400        0.80872
H          4.03865       -0.95002        1.81569
H          2.97402       -1.99165        2.83934
H          3.09432        1.09401        2.91029
H          3.82127       -0.03661        4.11449
H          2.02755        0.05027        3.93600
