18

C          2.35254       -2.28069        0.39560
C          1.26894       -1.86035       -0.39175
C          0.56129       -0.70179       -0.05636
C          0.92859        0.05061        1.07049
C          2.01129       -0.37008        1.85652
C          2.71878       -1.52839        1.52120
C          3.12065       -3.52135        0.04778
H          0.97024       -2.42718       -1.26485
H         -0.27165       -0.39396       -0.67625
C          0.17858        1.29542        1.44219
H          2.30704        0.19954        2.72906
H          3.55249       -1.83951        2.13877
H          2.71709       -4.00937       -0.86488
H          3.06119       -4.24486        0.88797
H          4.18498       -3.26252       -0.13424
H         -0.64904        1.50166        0.73052
H          0.87065        2.16370        1.43661
H         -0.25314        1.18138        2.45882
